* PSpice Model Editor - Version 17.4.0

*$
.model Mbreakp PMOS
*$
